tests/data/state_estimation/node-injection-wo-injection-sensor-sym-sensors/input.json
{
  "version": "1.0",
  "type": "input",
  "is_batch": false,
  "attributes": {},
  "data": {
    "node": [
      {
        "id": 1,
        "u_rated": 10000.0
      },
      {
        "id": 2,
        "u_rated": 10000.0
      }
    ],
    "link": [
      {
        "id": 3,
        "from_node": 1,
        "to_node": 2,
        "from_status": 1,
        "to_status": 1
      }
    ],
    "source": [
      {
        "id": 4,
        "node": 1,
        "status": 1,
        "u_ref": 1.0
      }
    ],
    "asym_gen": [
      {
        "id": 5,
        "node": 2,
        "status": 1,
        "type": 0
      }
    ],
    "asym_load": [
      {
        "id": 6,
        "node": 2,
        "status": 1,
        "type": 0
      }
    ],
    "sym_voltage_sensor": [
      {
        "id": 11,
        "measured_object": 1,
        "u_sigma": 100.0,
        "u_measured": 10000.0,
        "u_angle_measured": 0.0
      }
    ],
    "sym_power_sensor": [
      {
        "id": 15,
        "measured_object": 5,
        "measured_terminal_type": 5,
        "power_sigma": 100.0,
        "p_measured": 900.0,
        "q_measured": 90.0
      },
      {
        "id": 16,
        "measured_object": 6,
        "measured_terminal_type": 4,
        "power_sigma": 100.0,
        "p_measured": 1800.0,
        "q_measured": 180.0
      }
    ]
  }
}
